11

C          1.06397       -1.31335        4.31198
O          1.02862        0.13433        4.43029
C          0.38037        0.76351        3.44385
O         -0.11309        0.17818        2.51997
C          0.40125        2.24530        3.62471
H          0.21196       -1.60080        4.41597
H          1.51663       -1.54512        3.51167
H          1.57744       -1.45464        5.10173
H          0.41450        2.49864        4.47625
H         -0.37120        2.56824        3.18010
H          1.14353        2.49168        3.07460
