30

I         -0.00045        5.18342        8.11394
C         -0.00045        5.18342        5.98136
C         -0.00045        6.46314        5.09023
H         -0.00000        7.34869        5.43132
C          1.10333        5.82017        4.18987
H          1.85116        6.25245        3.92407
C         -0.00045        5.18342        3.29259
C          1.10872        4.54356        5.09023
C         -1.10827        4.54278        5.09023
H         -1.87540        4.10040        5.43132
C         -1.10334        5.82017        4.18987
H         -1.85161        6.25167        3.92407
C         -0.00000        3.90914        4.18987
H          1.87540        4.10040        5.43132
H          0.00045        3.04537        3.92407
C          0.00049        5.18288        1.82887
C          0.00000        6.45718        0.93159
C          1.10873        5.82276        0.03124
C          0.00049        5.18288       -0.85990
I          0.00049        5.18288       -2.99248
C         -0.00044        3.90318        0.03124
H          0.00000        3.01763       -0.30985
C          1.10334        4.54615        0.93159
H          1.87540        6.26592       -0.30985
H          1.85116        4.11387        1.19739
C         -1.10333        4.54615        0.93159
C         -1.10827        5.82354        0.03124
H         -1.87540        6.26592       -0.30985
H          0.00045        7.32095        1.19739
H         -1.85161        4.11465        1.19739
