84

O         15.62920        2.42010        2.30359
O         15.08271        4.18038        3.56621
N         14.47737        7.02129        3.66910
H         14.18573        7.18878        4.46049
C         13.82071        6.07210        2.78193
H         13.56322        6.55473        1.96864
C         14.79334        4.97251        2.37966
H         14.37625        4.40215        1.70046
C         16.08892        5.54966        1.82853
H         15.91556        5.95543        0.96489
H         16.72860        4.83209        1.69827
C         16.69068        6.59237        2.75949
H         17.45675        7.00494        2.32821
H         17.00024        6.15809        3.57004
C         15.67108        7.67286        3.12180
H         15.42132        8.15867        2.30851
C         16.19399        8.67011        4.15182
H         16.42488        8.18762        4.96127
H         15.48168        9.29070        4.37238
C         17.41336        9.46933        3.69592
H         18.15283        8.85786        3.55526
H         17.21151        9.88856        2.84487
C         17.84308       10.53563        4.67449
H         18.02267       10.12307        5.53320
H         17.11531       11.16534        4.79544
C         19.09697       11.30286        4.21421
H         19.82795       10.67315        4.11241
H         18.92248       11.69371        3.34400
C         19.52217       12.39001        5.15721
H         19.67704       11.99916        6.03125
H         18.79609       13.02695        5.24478
C         20.77889       13.13798        4.72648
H         20.62590       13.52058        3.84807
H         20.92772       13.87235        5.34274
C         15.67881        2.19485        4.67121
H         14.91011        1.62421        4.82938
H         15.71183        2.84743        5.38817
C         15.48319        2.91272        3.38013
C         12.54588        5.55299        3.43540
H         11.97864        6.29272        3.66198
H         12.77093        5.06515        4.23172
H         12.08616        4.97251        2.82407
C         22.04918       12.28115        4.67121
H         22.81789       12.85179        4.82938
H         22.01617       11.62857        5.38817
C         22.24481       11.56328        3.38013
O         22.09880       12.05590        2.30359
O         22.64529       10.29562        3.56621
C         22.93466        9.50349        2.37966
C         23.90729        8.40390        2.78193
N         23.25064        7.45471        3.66910
H         23.54227        7.28722        4.46049
C         22.05692        6.80314        3.12180
C         21.03732        7.88363        2.75949
C         21.63908        8.92634        1.82853
H         23.35175       10.07385        1.70046
H         21.81244        8.52057        0.96489
H         20.99940        9.64391        1.69827
H         20.27125        7.47106        2.32821
H         20.72776        8.31791        3.57004
H         22.30668        6.31733        2.30851
C         21.53401        5.80589        4.15182
H         21.30312        6.28837        4.96127
H         22.24632        5.18530        4.37238
C         20.31464        5.00667        3.69592
H         19.57517        5.61813        3.55526
H         20.51649        4.58744        2.84487
C         19.88492        3.94037        4.67449
H         19.70534        4.35293        5.53320
H         20.61269        3.31066        4.79544
C         18.63103        3.17314        4.21421
H         17.90005        3.80284        4.11241
H         18.80552        2.78229        3.34400
C         18.20584        2.08599        5.15721
H         18.05096        2.47684        6.03125
H         18.93191        1.44905        5.24478
C         16.94912        1.33802        4.72648
H         17.10210        0.95542        3.84807
H         16.80028        0.60365        5.34274
H         24.16479        7.92127        1.96864
C         25.18212        8.92301        3.43540
H         25.74936        8.18328        3.66198
H         24.95707        9.41085        4.23172
H         25.64184        9.50349        2.82407
