34

C          1.34753        1.34753        1.34753
C          2.21690        0.46097        0.43873
C          1.32630       -0.42559       -0.44277
H          1.92779        1.92779        1.92779
H          2.61520        0.98361       -0.32349
H          2.55050       -0.12131        0.92093
H          1.84388       -1.09683       -0.93003
C          0.43873        2.21690        0.46097
C          0.46097        0.43873        2.21690
C          0.44277       -1.32630        0.42559
C          0.42559        0.44277       -1.32630
C         -0.44277        1.32630       -0.42559
H         -0.32349        2.61520        0.98361
H          0.92093        2.55050       -0.12131
C         -0.42559       -0.44277        1.32630
H          0.98361       -0.32349        2.61520
H         -0.12131        0.92093        2.55050
C         -0.43873       -2.21690       -0.46097
H          0.93003       -1.84388        1.09683
C         -0.46097       -0.43873       -2.21690
H          1.09683        0.93003       -1.84388
C         -1.32630        0.42559        0.44277
H         -0.93003        1.84388       -1.09683
H         -1.09683       -0.93003        1.84388
C         -1.34753       -1.34753       -1.34753
H          0.32349       -2.61520       -0.98361
H         -0.92093       -2.55050        0.12131
H         -0.98361        0.32349       -2.61520
H          0.12131       -0.92093       -2.55050
C         -2.21690       -0.46097       -0.43873
H         -1.84388        1.09683        0.93003
H         -1.92779       -1.92779       -1.92779
H         -2.61520       -0.98361        0.32349
H         -2.55050        0.12131       -0.92093
