119

C          3.42335        0.63887        7.91266
C          3.46992       -0.20126        6.64347
C          2.30806        0.16121        5.71295
C          1.00349        0.05400        6.45953
C          0.95134        0.93096        7.70924
C         -0.41241        0.88148        8.40929
C         -0.65444       -0.45787        9.10069
C          0.45467       -0.78125       10.09613
C          1.82837       -0.77966        9.38742
C          2.09910        0.60010        8.69819
C          2.93875       -1.21503       10.35256
C          2.60302       -2.55235       10.99094
C          1.30332       -2.52366       11.82084
C          0.13180       -2.04811       10.90763
C         -0.23603       -3.30134       10.12534
C         -0.22508       -4.39720       11.19760
C          0.94740       -4.03209       12.13678
C          1.47772       -1.63418       13.04890
C          2.21074        1.71467        9.75206
C          0.72527       -4.33974       13.58449
C         -0.54334       -4.10208       14.33756
C          1.60626       -4.87982       14.42304
C          1.02222       -4.94921       15.74741
O          2.37428        1.51627        5.23146
O          3.67921       -3.02559       11.82192
O         -1.03854       -1.81141       11.73536
O         -0.20543       -4.42210       15.71603
O          1.50489       -5.37500       16.79046
C          3.39025        1.87685        4.36695
C          2.85051        2.98412        3.47322
C          3.91921        3.67166        2.63250
C          5.11799        4.04465        3.50676
C          5.56768        2.88299        4.40049
C          6.60981        3.34084        5.39485
C          6.18242        5.63739        2.08068
C          7.57080        6.07548        1.66844
C          7.49954        7.33423        0.79852
C          6.47781        7.15361       -0.31594
C          5.13521        6.66645        0.21207
C          4.12028        6.35419       -0.87101
C          6.55586        8.36629       -2.34794
C          6.31781        9.73771       -2.94195
C          6.63308        9.70069       -4.43187
C          8.00808        9.07438       -4.66882
C          8.20899        7.76886       -3.90385
C          9.64143        7.28302       -3.95146
O          4.46276        2.39577        5.16438
O          4.40018        2.81151        1.56565
O          6.27299        4.40157        2.73205
O          5.38638        5.43600        0.91645
O          7.14260        8.41186        1.65762
O          6.31224        8.42006       -0.97272
O          7.91650        8.00333       -2.52322
O          5.66908        8.94446       -5.14599
O          8.20770        8.85098       -6.07001
H          4.20394        0.46758        8.55428
H          3.55396        1.51164        7.69626
H          4.31269       -0.09641        6.18038
H          3.35231       -1.14373        6.86961
H          2.45502       -0.47604        4.94149
H          0.15241        0.33265        5.87417
H          0.87008       -0.85519        6.67918
H          1.15879        1.80272        7.37382
H         -0.59411        1.57715        8.98492
H         -1.15031        1.04470        7.69518
H         -1.51769       -0.54082        9.55188
H         -0.71723       -1.13419        8.50667
H          0.51263        0.00088       10.72044
H          1.74857       -1.42512        8.73822
H          3.80836       -1.32078        9.86458
H          3.04066       -0.55755       11.05911
H          2.46723       -3.18713       10.21948
H         -1.13898       -3.09163        9.76720
H          0.45064       -3.33600        9.50211
H         -1.10547       -4.41689       11.73752
H         -0.15900       -5.31873       10.83514
H          1.79803       -4.51091       11.84897
H          0.68415       -1.73306       13.63102
H          1.77198       -0.74372       12.86497
H          2.26461       -1.93096       13.54879
H          1.40355        1.75759       10.30820
H          2.33931        2.58582        9.21214
H          2.95190        1.55097       10.21948
H         -0.92260       -3.09511       14.16553
H         -1.29676       -4.72947       14.11359
H          2.50526       -5.23819       14.23586
H          4.40708       -2.65900       11.59578
H         -1.11682       -0.92999       11.87926
H          3.77599        1.11535        3.91792
H          2.24356        2.61328        2.86405
H          2.42211        3.74375        4.19599
H          3.47530        4.48787        2.23433
H          4.87694        4.82133        4.10618
H          5.83755        2.19772        3.84975
H          6.88842        2.52431        5.73243
H          7.49243        3.61414        4.86034
H          6.10775        4.09655        5.84171
H          5.68820        6.28193        2.72123
H          8.07208        6.32635        2.42368
H          8.01669        5.40238        1.18803
H          8.38440        7.49314        0.37870
H          6.79579        6.50912       -0.90130
H          4.79676        7.32952        0.85261
H          4.60725        5.58390       -1.58946
H          3.92147        7.33069       -1.41958
H          3.15461        5.97861       -0.48365
H          5.86450        7.66426       -2.81861
H          5.23389        9.89468       -2.73421
H          7.00016       10.32562       -2.45505
H          6.68092       10.79002       -4.79542
H          8.78520        9.79895       -4.24144
H          7.50759        7.06822       -4.36154
H          9.75621        7.33043       -4.97936
H          9.50395        6.33568       -3.28928
H         10.37411        8.01752       -3.57276
H          5.09842        3.33124        1.12528
H          7.03393        9.28622        1.05819
H          4.72635        9.30360       -5.28881
H          7.13923        8.82748       -6.31238
