33

H          1.19900       -4.90800        2.71800
N         -0.50900       -0.10200        0.49700
H          2.26400       -3.62300        2.32100
H         -1.08300       -4.64800        2.31500
O         -1.79800        2.81800       -1.56200
C          0.65200        0.74900        0.34500
C          1.34600        0.51000       -1.00100
C          0.69500        1.54400       -1.92300
C          0.50700        2.72600       -0.96400
C         -0.63600        3.64200       -1.32900
O          0.21900        2.11100        0.32300
H          1.32100        0.57300        1.17000
H          1.27000       -0.51200       -1.33600
O          2.71700        0.95900       -0.92700
H          3.28500        0.32900       -0.46600
H         -0.26100        1.20900       -2.28200
H          1.42900        3.28400       -0.89700
H         -0.36300        4.18700       -2.22400
H         -0.81000        4.33800       -0.51900
O          1.51300        1.88100       -3.03600
H         -2.09700        1.14900       -0.21500
N         -0.92500       -3.73000        1.95100
C          0.33800       -3.22000        1.89600
N          1.34200       -3.99600        2.34800
N          0.59400       -2.03400        1.42900
C         -0.50700       -1.35400        1.01500
C         -1.80900       -1.77400        1.02800
C         -2.12200       -3.07100        1.52700
O         -3.17500       -3.65900        1.63900
N         -2.62700       -0.76900        0.51800
C         -1.84200        0.21300        0.21500
H          2.43500        1.83600       -2.73800
H         -2.56100        3.34200       -1.83500
