17

O          0.47863        5.72083        4.46058
O         -0.62928        7.34802        3.41989
C         -2.10131        8.00543        5.75782
H         -2.47086        8.08096        6.64123
H         -2.78374        7.71262        5.14991
H         -1.76669        8.85959        5.47673
C         -1.04265        6.94518        5.75112
H         -0.35514        7.18950        6.39026
H         -1.43700        6.11061        6.04783
C         -0.40338        6.72512        4.42488
C          1.18810        5.44761        3.23027
H          1.63180        6.25048        2.91572
H          0.56801        5.15107        2.54651
C          2.18420        4.39016        3.51024
H          2.73348        4.24096        2.73725
H          1.74411        3.57237        3.75340
H          2.73221        4.68763        4.24084
