66

O         -0.05885        7.95392        4.41702
O         -4.08343        7.99552        7.23235
O         -1.20699        6.52105        5.70735
O         -3.09985        8.97062        5.48238
C          0.10198       15.21894        8.51737
H          0.09014       16.17907        8.76083
H         -0.78875       14.98765        8.15310
C          1.19633       14.98099        7.40442
H          0.77160       14.55501        6.61730
H          1.56209       15.85459        7.11520
C          2.32639       14.10905        7.88767
C          2.19668       12.71629        7.93526
C          3.02353       11.99245        8.79194
H          3.00423       11.04230        8.76083
C          3.87663       12.62477        9.69256
C          4.12713       13.97094        9.49303
H          4.81981       14.40026        9.98178
C          3.37594       14.69145        8.59059
H          3.57920       15.60832        8.44415
C          4.21319       11.93920       10.99039
H          5.03065       12.34688       11.36930
H          4.40557       10.98406       10.81100
C          3.04118       12.04070       12.05025
H          2.74154       11.12717       12.28456
H          3.39191       12.46336       12.87398
C          1.84585       12.83942       11.56151
C          1.75611       14.21389       11.71710
H          2.21908       14.63821       12.42917
C          1.00160       14.96934       10.84761
H          0.91634       15.90451       10.99588
C          0.36293       14.39360        9.75662
C          0.24192       12.99085        9.73283
C          0.95985       12.25037       10.66090
H          0.84376       11.30854       10.68469
C          0.91999       12.09395        7.43004
H          0.68134       12.42842        6.51845
C          0.69838       10.57805        7.55818
H          1.45256       10.00397        7.87486
C         -0.25626       10.02893        6.50014
H         -0.22117       10.40333        5.57391
C         -0.54661        8.52966        6.68686
H          0.11860        8.15027        7.32937
C         -0.57959        7.67270        5.46408
C         -1.17566        5.53114        4.64035
H         -1.26286        4.62426        5.03024
H         -0.30487        5.57939        4.17173
C         -2.28092        5.75744        3.65919
H         -2.25394        5.06189        2.96909
H         -2.17057        6.63603        3.24000
H         -3.14311        5.72416        4.12414
C         -0.27448       12.33856        8.48259
H         -1.03643       12.84441        8.07987
C         -0.53660       10.82432        8.51554
H         -0.56071       10.35673        9.39967
C         -1.48851       10.35341        7.40076
H         -2.16885       11.00070        7.05662
C         -1.86933        8.85081        7.46116
H         -1.86028        8.49305        8.39472
C         -3.14573        8.54131        6.74543
C         -4.29186        8.81587        4.66414
H         -4.09911        8.21350        3.90265
H         -5.01726        8.41318        5.20414
C         -4.71042       10.10880        4.17173
H         -5.46591        9.99565        3.55668
H         -3.96548       10.53478        3.69763
H         -4.98452       10.67290        4.92407
