74

O         -3.94268        2.14003        2.04975
O         -3.13399        4.07605        1.26303
O         -5.69239        4.86114        2.54431
O         -5.10348        6.87856        3.29946
C          3.91028        8.66284        7.39378
H          4.54657        9.39201        7.59964
H          3.33056        8.96524        6.65046
C          4.72250        7.37586        6.93275
H          4.49061        7.16625        5.99342
H          5.69179        7.57541        6.96850
C          4.43248        6.16910        7.79564
C          3.21646        5.47930        7.70442
C          2.79001        4.73008        8.80276
H          1.99769        4.21084        8.72757
C          3.49337        4.72093       10.00835
C          4.79283        5.21490        9.98986
H          5.36167        5.07746       10.73935
C          5.26307        5.90676        8.88659
H          6.16371        6.20795        8.87180
C          2.73569        4.50987       11.29776
H          3.37293        4.24247       12.00657
H          2.09124        3.76809       11.17573
C          1.94155        5.81583       11.77852
H          0.97982        5.59415       11.86481
H          2.27132        6.08045       12.67347
C          2.09235        6.98537       10.83427
C          3.14951        7.87723       10.96370
H          3.56838        7.99071       11.80811
C          3.59919        8.60211        9.87152
H          4.28215        9.25243        9.98740
C          3.05917        8.38840        8.60676
C          1.86802        7.65013        8.50075
C          1.37257        7.00150        9.64101
H          0.53085        6.56461        9.59909
C          2.22844        5.89136        6.65169
H          2.66448        6.02708        5.76168
C          0.88483        5.13023        6.53088
H          0.76483        4.29016        7.05848
C          0.25395        5.21132        5.13793
H          0.84755        5.24340        4.33420
C         -1.08119        4.45973        5.05164
H         -1.20248        3.63126        5.59773
C         -1.74428        4.53794        3.67717
H         -1.16193        4.57070        2.86481
C         -3.08810        3.75895        3.59951
H         -3.13399        3.04568        4.29968
C         -3.45054        3.21485        2.24106
C         -3.52271        3.65596       -0.07643
H         -4.50953        3.61877       -0.14792
H         -3.16035        2.75560       -0.26996
C         -2.97960        4.63853       -1.03424
H         -3.20366        4.36301       -1.94645
H         -2.00551        4.68664       -0.93563
H         -3.36919        5.52007       -0.85427
C          1.40917        7.20944        7.13614
H          1.47406        7.95090        6.46802
C          0.09559        6.41830        6.98206
H         -0.51639        6.35152        7.76976
C         -0.52113        6.52638        5.58170
H         -0.39532        7.36825        5.05533
C         -1.84941        5.78062        5.48801
H         -2.43528        5.74688        6.29667
C         -2.50927        5.83821        4.10861
H         -2.41210        6.66612        3.55759
C         -3.84344        5.04982        4.05561
H         -4.18364        4.91893        4.98753
C         -4.96102        5.55210        3.19148
C         -6.23775        7.46342        2.60101
H         -7.03633        6.88894        2.71319
H         -6.03801        7.53395        1.63334
C         -6.49515        8.79126        3.15573
H         -7.26152        9.19427        2.69593
H         -5.70506        9.35653        3.03123
H         -6.69254        8.71221        4.11231
